%nproc=16
%mem=5gb
#B3LYP CBSB7 OPT

Methane distored

0 1
 C -1                -0.21850200   -0.12615200    0.08920300
 H -1                 0.09325300    0.05383900    1.10795300
 H -1                 0.09325300   -1.02664200   -0.42007800
 H -1                -0.84247100    0.59408000   -0.42007800
 H                  0.64674459    0.45819773   -0.25874224




